
Marvin  09260512442D          

  4  3  0  0  0  0            999 V2000
    0.2750   -0.9408    0.0000 H   0  0  0  0  0  0  0  0  0  0  0  0
    1.2030   -1.3252    0.0000 H   0  0  0  0  0  0  0  0  0  0  0  0
    0.9895   -0.5283    0.0000 N   0  0  0  0  0  0  0  0  0  0  0  0
    1.7864   -0.7418    0.0000 H   0  0  0  0  0  0  0  0  0  0  0  0
  3  1  1  0  0  0  0
  3  2  1  0  0  0  0
  3  4  1  0  0  0  0
M  END
> <ID>
CHEBI:16134

> <NAME>
ammonia

> <DEFINITION>
An azane that consists of a single nitrogen atom covelently bonded to three hydrogen atoms.

> <STAR>
3

> <SECONDARY_ID>
CHEBI:44284; CHEBI:44269; CHEBI:44404; CHEBI:13405; CHEBI:13406; CHEBI:13407; CHEBI:13771; CHEBI:7434; CHEBI:22533

> <SYNONYM>
spirit of hartshorn; R-717; NH3; NH(3); NH3; amoniaco; Ammoniak; ammoniac; AMMONIA; Ammonia; [NH3]

> <IUPAC_NAME>
azane; ammonia

> <FORMULA>
H3N

> <MASS>
17.03056

> <MONOISOTOPIC_MASS>
17.02655

> <CHARGE>
0

> <SMILES>
[H]N([H])[H]

> <INCHI>
InChI=1S/H3N/h1H3

> <INCHIKEY>
QGZKDVFQNNGYKY-UHFFFAOYSA-N

> <BEILSTEIN_REGISTRY_NUMBER>
3587154

> <CAS_REGISTRY_NUMBER>
7664-41-7

> <GMELIN_REGISTRY_NUMBER>
79

> <REAXYS_REGISTRY_NUMBER>
3587154

> <CHEMIDPLUS>
7664-41-7

> <KEGG_COMPOUND_ACCESSION>
C00014

> <KEGG_DRUG_ACCESSION>
D02916

> <KNAPSACK_ACCESSION>
C00007267

> <METACYC_ACCESSION>
AMMONIA

> <MOLBASE_ACCESSION>
930

> <NIST_CHEMISTRY_WEBBOOK>
7664-41-7

> <PDBECHEM_ACCESSION>
NH3

> <WIKIPEDIA_ACCESSION>
Ammonia

> <PUBMED_CITATION>
110589; 11139349; 11540049; 11746427; 11783653; 13753780; 14663195; 15092448; 15094021; 15554424; 15969015; 16008360; 16050680; 16348008; 16349403; 16614889; 16664306; 16842901; 17025297; 17439666; 17569513; 17737668; 18670398; 22002069; 22081570; 22088435; 22100291; 22130175; 22150211; 22240068; 22290316; 22342082; 22385337; 22443779; 22560242

$$$$
