
Marvin  03060611162D          
 
 14 15  0  0  0  0            999 V2000
   -0.3852    0.2341    0.0000 C   0  0  0  0  0  0  0  0  0  0  0  0
    0.3293    0.6466    0.0000 C   0  0  0  0  0  0  0  0  0  0  0  0
   -0.3852   -0.5909    0.0000 C   0  0  0  0  0  0  0  0  0  0  0  0
   -1.0997    0.6466    0.0000 C   0  0  0  0  0  0  0  0  0  0  0  0
    1.0437    0.2341    0.0000 C   0  0  3  0  0  0  0  0  0  0  0  0
   -1.0997   -1.0034    0.0000 C   0  0  0  0  0  0  0  0  0  0  0  0
    1.7582    0.6466    0.0000 N   0  0  0  0  0  0  0  0  0  0  0  0
    1.0437   -0.5909    0.0000 C   0  0  0  0  0  0  0  0  0  0  0  0
    2.4727    0.2341    0.0000 C   0  0  0  0  0  0  0  0  0  0  0  0
   -1.8142    0.2341    0.0000 C   0  0  0  0  0  0  0  0  0  0  0  0
   -3.0837   -0.1784    0.0000 C   0  0  0  0  0  0  0  0  0  0  0  0
   -1.8142   -0.5909    0.0000 C   0  0  0  0  0  0  0  0  0  0  0  0
   -2.5988    0.4890    0.0000 O   0  0  0  0  0  0  0  0  0  0  0  0
   -2.5988   -0.8458    0.0000 O   0  0  0  0  0  0  0  0  0  0  0  0
  1  2  1  0  0  0  0
  1  3  1  0  0  0  0
  1  4  2  0  0  0  0
  2  5  1  0  0  0  0
  3  6  2  0  0  0  0
  4 10  1  0  0  0  0
  5  7  1  0  0  0  0
  5  8  1  0  0  0  0
  6 12  1  0  0  0  0
  7  9  1  0  0  0  0
 10 13  1  0  0  0  0
 11 14  1  0  0  0  0
 11 13  1  0  0  0  0
 14 12  1  0  0  0  0
 10 12  2  0  0  0  0
M  END
> <ID>
CHEBI:1391

> <NAME>
3,4-methylenedioxymethamphetamine

> <DEFINITION>
A member of the class of  benzodioxoles that is 1,3-benzodioxole substituted by a 2-(methylamino)propyl group at position 5.

> <STAR>
3

> <SYNONYM>
N-Methyl-3,4-methylenedioxyamphetamine; N,alpha-dimethyl-1,3-benzodioxole-5-ethanamine; MDMA; MDMA; ecstasy; DL-(3,4-Methylenedioxy)methamphetamine; 3,4-Methylenedioxymethamphetamine; 1-(1,3-Benzodioxol-5-yl)-N-methyl-2-propanamine; (RS)-3,4-(methylenedioxy)methamphetamine

> <IUPAC_NAME>
1-(1,3-benzodioxol-5-yl)-N-methylpropan-2-amine

> <FORMULA>
C11H15NO2

> <MASS>
193.24234

> <MONOISOTOPIC_MASS>
193.11028

> <CHARGE>
0

> <SMILES>
CNC(C)Cc1ccc2OCOc2c1

> <INCHI>
InChI=1S/C11H15NO2/c1-8(12-2)5-9-3-4-10-11(6-9)14-7-13-10/h3-4,6,8,12H,5,7H2,1-2H3

> <INCHIKEY>
SHXWCVYOXRDMCX-UHFFFAOYSA-N

> <CAS_REGISTRY_NUMBER>
42542-10-9

> <REAXYS_REGISTRY_NUMBER>
158675

> <CHEMIDPLUS>
42542-10-9

> <DRUGBANK_ACCESSION>
DB01454

> <KEGG_COMPOUND_ACCESSION>
C07577

> <WIKIPEDIA_ACCESSION>
MDMA

> <PUBMED_CITATION>
15062945; 18570171

$$$$
